powerflow/Codes/PF_Formulation/resultados_csv/14/9bus/ramos.csv
caso,script,branch_id,f_bus,t_bus,pf_pu,qf_pu,pt_pu,qt_pu,loss_p_pu,loss_q_pu
9bus.pwf,14,1,7,8,0.5422571381368159,0.01487256781374885,-0.5401140638520722,-0.17529390238688908,0.0021430742847436957,-0.16042133457314023
9bus.pwf,14,2,4,5,0.922008279147973,0.08842877339667216,-0.9146275128374036,-0.23335246450416908,0.007380766310569387,-0.14492369110749692
9bus.pwf,14,3,4,6,0.6545114880544493,-0.08647507540814668,-0.6484563869495764,-0.06918120873207269,0.00605510110487284,-0.15565628414021937
9bus.pwf,14,4,6,9,-0.251543612960845,-0.23081879127219182,0.25364313682626455,-0.18823408584398318,0.0020995238654195614,-0.419052877116175
9bus.pwf,14,5,7,5,0.3387059778844429,-0.07870893658544212,-0.33537248720093304,-0.2666475354796327,0.0033334906835098543,-0.3453564720650748
9bus.pwf,14,6,8,9,-0.4598859362137412,-0.17470609759597366,0.4620320075940213,-0.05759923303818836,0.0021460713802801124,-0.23230533063416203
9bus.pwf,14,7,1,4,1.5765197672152573,0.12096431910865135,-1.5765197672152573,-0.001953697984031777,0.0,0.11901062112461958
9bus.pwf,14,8,2,7,0.8809631162495987,-0.023538073117769898,-0.8809631162495987,0.06383636880760335,0.0,0.04029829568983345
9bus.pwf,14,9,3,9,0.7156751445286982,-0.21810114351227128,-0.7156751445286982,0.2458333188952153,0.0,0.027732175382944035
